Circuit: * C:\Users\Manuel Mollon\source\repos\TC-TP6\Oscilador de Wien\FET.asc

V2: Missing value, assumed 0V @ DC
.step v=-5
.step v=-4
.step v=-3
.step v=-2
.step v=-1
.step v=0

Date: Mon Nov 12 14:51:38 2018
Total elapsed time: 0.453 seconds.

tnom = 27
temp = 27
method = trap
totiter = 401
traniter = 0
tranpoints = 0
accept = 0
rejected = 0
matrix size = 7
fillins = 0
Matrix Compiler1:      13 opcodes  0.1/0.1/[0.0]
Matrix Compiler2: off  [0.1]/0.1/0.1

