Circuit: * C:\Users\Manuel Mollon\source\repos\TC-TP6\Oscilador de Wien\wien.asc

WARNING: Node NC_02 is floating.

WARNING: Less than two connections to node NC_01.  This node is used by R5.
WARNING: Less than two connections to node NC_02.  This node is used by C3.
Direct Newton iteration failed to find .op point.  (Use ".option noopiter" to skip.)
Starting Gmin stepping
Gmin = 10
vernier = 0.5
vernier = 0.25
vernier = 0.125
Gmin = 5.5165
vernier = 0.0625
vernier = 0.03125
vernier = 0.015625
vernier = 0.0078125
Gmin = 5.48432
vernier = 0.00390625
vernier = 0.00195313
vernier = 0.000976563
vernier = 0.000488281
Gmin = 0
Gmin stepping failed

Starting source stepping with srcstepmethod=0
Source Step = 3.0303%
Source Step = 33.3333%
Source Step = 63.6364%
Source Step = 93.9394%
Source stepping succeeded in finding the operating point.


Date: Mon Nov 12 00:30:08 2018
Total elapsed time: 1.929 seconds.

tnom = 27
temp = 27
method = modified trap
totiter = 118395
traniter = 116670
tranpoints = 39114
accept = 28286
rejected = 10828
matrix size = 40
fillins = 88
solver = Alternate
Matrix Compiler1: 8.66 KB object code size  2.3/1.6/[1.1]
Matrix Compiler2: 5.40 KB object code size  1.7/1.8/[0.9]

