Circuit: * C:\Users\Manuel Mollon\source\repos\TC-TP6\Oscilador de Wien\wien.asc

Direct Newton iteration failed to find .op point.  (Use ".option noopiter" to skip.)
Starting Gmin stepping
Gmin = 10
vernier = 0.5
vernier = 0.25
vernier = 0.125
Gmin = 5.5165
vernier = 0.0625
vernier = 0.03125
vernier = 0.015625
vernier = 0.0078125
Gmin = 5.48432
vernier = 0.00390625
vernier = 0.00195313
vernier = 0.000976563
vernier = 0.000488281
Gmin = 0
Gmin stepping failed

Starting source stepping with srcstepmethod=0
Source Step = 3.0303%
Source Step = 33.3333%
Source Step = 63.6364%
Source Step = 93.9394%
Source stepping succeeded in finding the operating point.


Date: Tue Nov 13 12:57:57 2018
Total elapsed time: 1.922 seconds.

tnom = 27
temp = 27
method = modified trap
totiter = 111713
traniter = 109954
tranpoints = 34781
accept = 24638
rejected = 10143
matrix size = 38
fillins = 84
solver = Alternate
Matrix Compiler1: 8.34 KB object code size  1.8/1.2/[0.8]
Matrix Compiler2: 5.24 KB object code size  0.9/1.1/[0.5]

