Circuit: * C:\Users\Manuel Mollon\source\repos\TC-TP6\Oscilador de Wien\wien.asc

Direct Newton iteration failed to find .op point.  (Use ".option noopiter" to skip.)
Starting Gmin stepping
Gmin = 10
vernier = 0.5
vernier = 0.25
vernier = 0.125
Gmin = 5.5165
vernier = 0.0625
vernier = 0.03125
vernier = 0.015625
vernier = 0.0078125
Gmin = 5.48432
vernier = 0.00390625
vernier = 0.00195313
vernier = 0.000976563
vernier = 0.000488281
Gmin = 0
Gmin stepping failed

Starting source stepping with srcstepmethod=0
Source Step = 3.0303%
Source Step = 12.1212%
Source Step = 19.697%
Source Step = 27.2727%
Source Step = 34.8485%
Source Step = 42.4242%
vernier = 0.375
Source Step = 52.6515%
Source Step = 64.0152%
Source Step = 75.3788%
Source Step = 86.7424%
Source Step = 98.1061%
Source stepping succeeded in finding the operating point.


Date: Thu Nov 08 20:30:20 2018
Total elapsed time: 1.970 seconds.

tnom = 27
temp = 27
method = modified trap
totiter = 154353
traniter = 152204
tranpoints = 53428
accept = 37047
rejected = 16381
matrix size = 38
fillins = 84
solver = Alternate
Matrix Compiler1: 8.34 KB object code size  2.1/1.5/[1.0]
Matrix Compiler2: 5.24 KB object code size  6.4/4.0/[2.1]

