Circuit: * C:\Users\lugfe\Documents\GitHub\TC-TP6\vco\Draft2.asc

Early termination of direct N-R iteration.
Direct Newton iteration failed to find .op point.  (Use ".option noopiter" to skip.)
Starting Gmin stepping
Gmin = 10
vernier = 0.5
vernier = 0.25
vernier = 0.125
Gmin = 5.5165
vernier = 0.0625
vernier = 0.03125
vernier = 0.015625
vernier = 0.0078125
Gmin = 5.48432
vernier = 0.00390625
vernier = 0.00195313
vernier = 0.000976563
vernier = 0.000488281
Gmin = 0
Gmin stepping failed

Starting source stepping with srcstepmethod=0
Source Step = 3.0303%
Source Step = 8.35701%
vernier = 0.000976563
Source Step = 8.37476%
Source Step = 8.40436%
Source Step = 8.43395%
Source Step = 8.46354%
Source Step = 8.49313%
vernier = 0.00146484
Source Step = 8.53308%
Source Step = 8.57747%
Source Step = 8.62186%
Source Step = 8.66625%
Source Step = 8.71064%
vernier = 0.00219727
Source Step = 8.76835%
Source Step = 8.83493%
Source Step = 8.90152%
Source Step = 8.9681%
Source Step = 9.03468%
vernier = 0.0032959
Source Step = 9.11791%
Source Step = 9.21779%
Source Step = 9.31766%
Source Step = 9.41754%
Source Step = 9.51742%
vernier = 0.00494385
Source Step = 9.63727%
Source Step = 9.78708%
Source Step = 9.93689%
Source Step = 10.0867%
Source Step = 10.2365%
vernier = 0.00741577
Source Step = 10.4088%
Source Step = 10.6335%
Source Step = 10.8582%
Source Step = 11.083%
Source Step = 11.3077%
vernier = 0.0111237
Source Step = 11.5549%
Source Step = 11.892%
Source Step = 12.229%
Source Step = 12.5661%
Source Step = 12.9032%
vernier = 0.0166855
Source Step = 13.2571%
Source Step = 13.7628%
Source Step = 14.2684%
Source Step = 14.774%
Source Step = 15.2796%
Source Step = 15.7852%
vernier = 0.0250282
Source Step = 16.5437%
Source Step = 17.3021%
Source Step = 18.0605%
Source Step = 18.819%
Source Step = 19.5774%
vernier = 0.0375423
Source Step = 20.6771%
Source Step = 21.8148%
Source Step = 22.9524%
Source Step = 24.0901%
Source Step = 25.2277%
vernier = 0.0563135
Source Step = 26.8204%
Source Step = 28.5269%
Source Step = 30.2334%
Source Step = 31.9398%
Source Step = 33.6463%
vernier = 0.0844703
Source Step = 35.95%
Source Step = 38.5097%
Source Step = 41.0694%
Source Step = 43.6291%
Source Step = 46.1889%
vernier = 0.126705
Source Step = 49.5165%
Source Step = 53.356%
Source Step = 57.1956%
Source Step = 61.0351%
Source Step = 64.8747%
vernier = 0.190058
Source Step = 69.6741%
Source Step = 75.4335%
Source Step = 81.1928%
Source Step = 86.9522%
Source Step = 92.7115%
vernier = 0.285087
Source Step = 99.6227%
Source stepping succeeded in finding the operating point.


Date: Mon Nov 05 00:03:58 2018
Total elapsed time: 0.546 seconds.

tnom = 27
temp = 27
method = modified trap
totiter = 17318
traniter = 12929
tranpoints = 3995
accept = 3043
rejected = 952
matrix size = 58
fillins = 226
solver = Normal
Matrix Compiler1: 20.01 KB object code size  3.1/1.6/[1.0]
Matrix Compiler2: 8.90 KB object code size  1.6/2.3/[0.5]

