Circuit: * C:\Users\lugfe\Documents\GitHub\TC-TP6\vco\Draft4.asc

Early termination of direct N-R iteration.
Direct Newton iteration failed to find .op point.  (Use ".option noopiter" to skip.)
Starting Gmin stepping
Gmin = 10
vernier = 0.5
vernier = 0.25
vernier = 0.125
Gmin = 5.5165
vernier = 0.0625
vernier = 0.03125
vernier = 0.015625
vernier = 0.0078125
Gmin = 5.48432
vernier = 0.00390625
vernier = 0.00195313
vernier = 0.000976563
vernier = 0.000488281
Gmin = 0
Gmin stepping failed

Starting source stepping with srcstepmethod=0
Source Step = 3.0303%
Source Step = 10.322%
vernier = 0.00390625
Source Step = 10.319%
Source Step = 10.3486%
Source Step = 10.3782%
Source Step = 10.4078%
Source Step = 10.4374%
vernier = 0.00146484
Source Step = 10.4729%
Source Step = 10.5173%
Source Step = 10.5617%
Source Step = 10.6061%
Source Step = 10.6504%
vernier = 0.00219727
Source Step = 10.7015%
Source Step = 10.7681%
Source Step = 10.8347%
Source Step = 10.9012%
Source Step = 10.9678%
vernier = 0.0032959
Source Step = 11.0411%
Source Step = 11.141%
Source Step = 11.2408%
Source Step = 11.3407%
Source Step = 11.4406%
vernier = 0.00494385
Source Step = 11.5454%
Source Step = 11.6953%
Source Step = 11.8451%
Source Step = 11.9949%
Source Step = 12.1447%
Source Step = 12.2945%
vernier = 0.00741577
Source Step = 12.5192%
Source Step = 12.744%
Source Step = 12.9687%
Source Step = 13.1934%
Source Step = 13.4181%
vernier = 0.0111237
Source Step = 13.744%
Source Step = 14.081%
Source Step = 14.4181%
Source Step = 14.7552%
Source Step = 15.0923%
vernier = 0.0166855
Source Step = 15.5642%
Source Step = 16.0698%
Source Step = 16.5754%
Source Step = 17.0811%
Source Step = 17.5867%
vernier = 0.0250282
Source Step = 18.2693%
Source Step = 19.0277%
Source Step = 19.7861%
Source Step = 20.5446%
Source Step = 21.303%
vernier = 0.0375423
Source Step = 22.289%
Source Step = 23.4266%
Source Step = 24.5642%
Source Step = 25.7019%
Source Step = 26.8395%
vernier = 0.0563135
Source Step = 28.2616%
Source Step = 29.9681%
Source Step = 31.6745%
Source Step = 33.381%
Source Step = 35.0875%
vernier = 0.0844703
Source Step = 37.1352%
Source Step = 39.6949%
Source Step = 42.2547%
Source Step = 44.8144%
Source Step = 47.3741%
vernier = 0.126705
Source Step = 50.3177%
Source Step = 54.1573%
Source Step = 57.9968%
Source Step = 61.8364%
Source Step = 65.676%
vernier = 0.190058
Source Step = 69.8995%
Source Step = 75.6588%
Source Step = 81.4181%
Source Step = 87.1775%
Source Step = 92.9368%
vernier = 0.285087
Source Step = 98.9841%
Source stepping succeeded in finding the operating point.


Date: Sun Nov 04 22:43:55 2018
Total elapsed time: 1.019 seconds.

tnom = 27
temp = 27
method = modified trap
totiter = 66530
traniter = 61918
tranpoints = 18506
accept = 13143
rejected = 5363
matrix size = 57
fillins = 206
solver = Normal
Matrix Compiler1: 15.87 KB object code size  2.8/1.3/[0.7]
Matrix Compiler2: 8.54 KB object code size  1.6/1.6/[0.8]

