Circuit: * C:\Users\lugfe\Documents\GitHub\TC-TP6\vco\valen.asc

Early termination of direct N-R iteration.
Direct Newton iteration failed to find .op point.  (Use ".option noopiter" to skip.)
Starting Gmin stepping
Gmin = 10
vernier = 0.5
vernier = 0.25
vernier = 0.125
Gmin = 5.5165
vernier = 0.0625
vernier = 0.03125
vernier = 0.015625
vernier = 0.0078125
Gmin = 5.48432
vernier = 0.00390625
vernier = 0.00195313
vernier = 0.000976563
vernier = 0.000488281
Gmin = 0
Gmin stepping failed

Starting source stepping with srcstepmethod=0
Source Step = 3.0303%
Source Step = 9.75379%
Source Step = 9.77746%
Source Step = 9.80705%
Source Step = 9.83665%
Source Step = 9.86624%
Source Step = 9.89583%
vernier = 0.00146484
Source Step = 9.9343%
Source Step = 9.97869%
Source Step = 10.0231%
Source Step = 10.0675%
Source Step = 10.1119%
vernier = 0.00219727
Source Step = 10.1673%
Source Step = 10.2339%
Source Step = 10.3005%
Source Step = 10.3671%
Source Step = 10.4337%
vernier = 0.0032959
Source Step = 10.5136%
Source Step = 10.6135%
Source Step = 10.7133%
Source Step = 10.8132%
Source Step = 10.9131%
vernier = 0.00494385
Source Step = 11.0279%
Source Step = 11.1778%
Source Step = 11.3276%
Source Step = 11.4774%
Source Step = 11.6272%
vernier = 0.00741577
Source Step = 11.792%
Source Step = 12.0167%
Source Step = 12.2414%
Source Step = 12.4662%
Source Step = 12.6909%
vernier = 0.0111237
Source Step = 12.9268%
Source Step = 13.2639%
Source Step = 13.601%
Source Step = 13.9381%
Source Step = 14.2752%
Source Step = 14.6122%
vernier = 0.0166855
Source Step = 15.1179%
Source Step = 15.6235%
Source Step = 16.1291%
Source Step = 16.6347%
Source Step = 17.1403%
vernier = 0.0250282
Source Step = 17.8735%
Source Step = 18.6319%
Source Step = 19.3903%
Source Step = 20.1488%
Source Step = 20.9072%
vernier = 0.0375423
Source Step = 21.969%
Source Step = 23.1067%
Source Step = 24.2443%
Source Step = 25.382%
Source Step = 26.5196%
vernier = 0.0563135
Source Step = 28.0554%
Source Step = 29.7619%
Source Step = 31.4684%
Source Step = 33.1748%
Source Step = 34.8813%
vernier = 0.0844703
Source Step = 37.0997%
Source Step = 39.6594%
Source Step = 42.2191%
Source Step = 44.7788%
Source Step = 47.3385%
vernier = 0.126705
Source Step = 50.5382%
Source Step = 54.3777%
Source Step = 58.2173%
Source Step = 62.0568%
Source Step = 65.8964%
vernier = 0.190058
Source Step = 70.5039%
Source Step = 76.2632%
Source Step = 82.0225%
Source Step = 87.7819%
Source Step = 93.5412%
vernier = 0.285087
Source Step = 100%
Source stepping succeeded in finding the operating point.


Date: Wed Nov 07 17:26:09 2018
Total elapsed time: 2.877 seconds.

tnom = 27
temp = 27
method = modified trap
totiter = 19956
traniter = 15432
tranpoints = 4793
accept = 3582
rejected = 1211
matrix size = 122
fillins = 871
solver = Normal
Thread vector: 30.9/17.8[2] 2.5/2.4[1] 9.3/3.3[2] 2.0/2.6[1]  2592/500
Matrix Compiler1: 115.59 KB object code size  17.5/9.3/[4.3]
Matrix Compiler2: 25.71 KB object code size  8.5/7.2/[4.9]

