Circuit: * C:\Users\lugfe\Documents\GitHub\TC-TP6\vco\Draft3.asc

Direct Newton iteration for .op point succeeded.

Date: Sun Nov 04 21:14:53 2018
Total elapsed time: 0.058 seconds.

tnom = 27
temp = 27
method = modified trap
totiter = 6067
traniter = 6048
tranpoints = 2062
accept = 1755
rejected = 307
matrix size = 29
fillins = 32
solver = Normal
Matrix Compiler1: 2.77 KB object code size  0.5/0.4/[0.2]
Matrix Compiler2: off  [0.3]/0.4/0.4

