Circuit: * C:\Users\lugfe\Documents\GitHub\TC-TP6\vco\transformacion lineal.asc

Limiting fall time of source vin to 1.9984e-016
Direct Newton iteration for .op point succeeded.

Date: Wed Nov 07 01:48:06 2018
Total elapsed time: 0.273 seconds.

tnom = 27
temp = 27
method = modified trap
totiter = 2250
traniter = 2243
tranpoints = 1091
accept = 1074
rejected = 17
matrix size = 11
fillins = 1
solver = Normal
Matrix Compiler1: 504 bytes object code size  0.8/0.5/[0.3]
Matrix Compiler2: 891 bytes object code size  0.5/0.7/[0.4]

