Circuit: * C:\Users\lugfe\Documents\GitHub\TC-TP6\vco\vco.asc

R16: both pins shorted together -- ignoring.
Early termination of direct N-R iteration.
Direct Newton iteration failed to find .op point.  (Use ".option noopiter" to skip.)
Starting Gmin stepping
Gmin = 10
vernier = 0.5
vernier = 0.25
vernier = 0.125
Gmin = 5.5165
vernier = 0.0625
vernier = 0.03125
vernier = 0.015625
vernier = 0.0078125
Gmin = 5.48432
vernier = 0.00390625
vernier = 0.00195313
vernier = 0.000976563
vernier = 0.000488281
Gmin = 0
Gmin stepping failed

Starting source stepping with srcstepmethod=0
Source Step = 3.0303%
Source Step = 33.3333%
Source Step = 63.6364%
Source Step = 93.9394%
Source stepping succeeded in finding the operating point.


Date: Mon Nov 05 01:51:32 2018
Total elapsed time: 1.022 seconds.

tnom = 27
temp = 27
method = modified trap
totiter = 8990
traniter = 7260
tranpoints = 2539
accept = 2058
rejected = 481
matrix size = 117
fillins = 834
solver = Normal
Thread vector: 8.8/6.7[2] 5.0/3.3[2] 5.5/4.5[2] 1.1/2.3[1]  2592/500
Matrix Compiler1: 113.03 KB object code size  28.1/17.5/[8.0]
Matrix Compiler2: 24.66 KB object code size  5.9/7.9/[2.1]

