Circuit: * C:\Users\lugfe\Documents\GitHub\TC-TP6\vco\vco.asc

Early termination of direct N-R iteration.
Direct Newton iteration failed to find .op point.  (Use ".option noopiter" to skip.)
Starting Gmin stepping
Gmin = 10
vernier = 0.5
vernier = 0.25
vernier = 0.125
Gmin = 5.5165
vernier = 0.0625
vernier = 0.03125
vernier = 0.015625
vernier = 0.0078125
Gmin = 5.48432
vernier = 0.00390625
vernier = 0.00195313
vernier = 0.000976563
vernier = 0.000488281
Gmin = 0
Gmin stepping failed

Starting source stepping with srcstepmethod=0
Source Step = 3.0303%
Source Step = 6.25%
Source Step = 8.14394%
Source Step = 10.0379%
Source Step = 11.9318%
Source Step = 13.8258%
vernier = 0.09375
Source Step = 16.0985%
Source Step = 18.9394%
Source Step = 21.7803%
Source Step = 24.6212%
Source Step = 27.4621%
vernier = 0.140625
Source Step = 30.7292%
Source Step = 34.9905%
Source Step = 39.2519%
Source Step = 43.5133%
Source Step = 47.7746%
vernier = 0.210938
Source Step = 52.4621%
Source Step = 58.8542%
Source Step = 65.2462%
Source Step = 71.6383%
Source Step = 78.0303%
vernier = 0.316406
Source Step = 84.742%
Source Step = 94.33%
Source stepping succeeded in finding the operating point.


Date: Mon Nov 05 16:24:54 2018
Total elapsed time: 1.361 seconds.

tnom = 27
temp = 27
method = modified trap
totiter = 11199
traniter = 8738
tranpoints = 2919
accept = 2297
rejected = 622
matrix size = 118
fillins = 902
solver = Normal
Thread vector: 10.5/6.8[2] 2.5/2.5[1] 7.1/5.8[2] 1.2/3.3[1]  2592/500
Matrix Compiler1: 112.47 KB object code size  18.7/8.8/[4.5]
Matrix Compiler2: 26.15 KB object code size  9.0/6.5/[2.2]

